** MATERIALS
** 
*Material, name=cfrp
*Elastic, type=LAMINA
165000.,8400., 0.34,5600.,4200.,3500.
*Material, name=larc_cfrp
*Elastic, type=LAMINA
165000.,8400., 0.34,5600.,4200.,3500.
*Material, name=resin-like
*Elastic
4080., 0.38
** 
